Displayed atoms
                    3D
 Structure written by MMmdl.
 36 36  0  0  1  0            999 V2000
   -4.1995   -0.0326    1.0785 C   0  0  0  0  0  0
   -2.7297   -0.0882    1.5191 C   0  0  0  0  0  0
   -2.1774    1.2670    2.0151 C   0  0  2  0  0  0
   -0.6663    1.2396    2.4012 C   0  0  2  0  0  0
   -0.1103    2.6678    2.5988 C   0  0  0  0  0  0
    1.1870    2.6359    3.1638 O   0  0  0  0  0  0
   -2.9374    1.6079    3.2162 N   0  0  0  0  0  0
   -3.5573    2.9309    3.1981 C   0  0  0  0  0  0
   -7.7891    2.8701    2.2023 C   0  0  0  0  0  0
   -6.8629    3.4439    1.3097 C   0  0  0  0  0  0
   -5.4903    3.4592    1.6250 C   0  0  0  0  0  0
   -5.0339    2.9026    2.8409 C   0  0  0  0  0  0
   -5.9691    2.3417    3.7405 C   0  0  0  0  0  0
   -7.3403    2.3203    3.4187 C   0  0  0  0  0  0
   -8.8409    2.8518    1.9600 H   0  0  0  0  0  0
   -7.2060    3.8755    0.3788 H   0  0  0  0  0  0
   -8.0407    1.8831    4.1146 H   0  0  0  0  0  0
   -4.6167    4.0212    0.7531 F   0  0  0  0  0  0
   -5.5595    1.8316    4.9266 F   0  0  0  0  0  0
   -4.5128   -0.9846    0.6511 H   0  0  0  0  0  0
   -4.8540    0.1774    1.9238 H   0  0  0  0  0  0
   -4.3578    0.7420    0.3280 H   0  0  0  0  0  0
   -2.1603   -0.4295    0.6550 H   0  0  0  0  0  0
   -2.6071   -0.8526    2.2879 H   0  0  0  0  0  0
   -0.5707    0.7016    3.3465 H   0  0  0  0  0  0
   -0.7415    3.2394    3.2794 H   0  0  0  0  0  0
   -0.0911    3.2098    1.6517 H   0  0  0  0  0  0
    1.7703    2.1786    2.5761 H   0  0  0  0  0  0
   -3.0147    3.6196    2.5471 H   0  0  0  0  0  0
   -3.4830    3.3499    4.2028 H   0  0  0  0  0  0
   -2.3451    2.0020    1.2261 H   0  0  0  0  0  0
    0.2079    0.4809    1.3820 C   0  0  0  0  0  0
    1.2633    0.5206    1.6491 H   0  0  0  0  0  0
   -0.0465   -0.5779    1.3445 H   0  0  0  0  0  0
    0.1009    0.8923    0.3785 H   0  0  0  0  0  0
   -3.1665    1.2922    3.2161 H   0  0  0  0  0  0
  1  2  1  0  0  0
  1 20  1  0  0  0
  1 21  1  0  0  0
  1 22  1  0  0  0
  2  3  1  0  0  0
  2 23  1  0  0  0
  2 24  1  0  0  0
  3  4  1  0  0  0
  3  7  1  0  0  0
  3 31  1  0  0  0
  4  5  1  0  0  0
  4 25  1  0  0  0
  4 32  1  0  0  0
  5  6  1  0  0  0
  5 26  1  0  0  0
  5 27  1  0  0  0
  6 28  1  0  0  0
  7  8  1  0  0  0
  7 36  1  0  0  0
  8 12  1  0  0  0
  8 29  1  0  0  0
  8 30  1  0  0  0
  9 10  2  0  0  0
  9 14  1  0  0  0
  9 15  1  0  0  0
 10 11  1  0  0  0
 10 16  1  0  0  0
 11 12  2  0  0  0
 11 18  1  0  0  0
 12 13  1  0  0  0
 13 14  2  0  0  0
 13 19  1  0  0  0
 14 17  1  0  0  0
 32 33  1  0  0  0
 32 34  1  0  0  0
 32 35  1  0  0  0
M  END
$$$$
